<?xml version="1.0" encoding="UTF-8"?>

<!-- generated on Thu Feb  7 13:56:40 2019 by Eclipse SUMO netgenerate Version UNKNOWN
<configuration xmlns:xsi="http://www.w3.org/2001/XMLSchema-instance" xsi:noNamespaceSchemaLocation="http://sumo.dlr.de/xsd/netgenerateConfiguration.xsd">

    <town-sim_network>
        <town-sim value="true"/>
        <town-sim.file value="C:\Users\julinas\Downloads\tsp100x100_01.txt"/>
    </town-sim_network>

    <output>
        <output-file value="tsp100x100_01.net.xml"/>
    </output>

</configuration>
-->

<net version="1.0" junctionCornerDetail="5" limitTurnSpeed="5.50" xmlns:xsi="http://www.w3.org/2001/XMLSchema-instance" xsi:noNamespaceSchemaLocation="http://sumo.dlr.de/xsd/net_file.xsd">

    <location netOffset="0.00,0.00" convBoundary="0.00,0.00,990.00,990.00" origBoundary="0.00,0.00,990.00,990.00" projParameter="!"/>

    <edge id=":0_7_0" function="internal">
        <lane id=":0_7_0_0" index="0" speed="3.65" length="4.67" shape="0.55,71.50 -0.85,71.16 -1.50,70.55 -1.40,69.66 -0.55,68.50"/>
    </edge>
    <edge id=":0_97_0" function="internal">
        <lane id=":0_97_0_0" index="0" speed="3.65" length="4.67" shape="1.13,971.13 -0.28,971.41 -1.13,971.13 -1.41,970.28 -1.13,968.87"/>
    </edge>
    <edge id=":10_22_0" function="internal">
        <lane id=":10_22_0_0" index="0" speed="3.65" length="4.67" shape="100.00,221.60 98.80,220.80 98.40,220.00 98.80,219.20 100.00,218.40"/>
    </edge>
    <edge id=":10_27_0" function="internal">
        <lane id=":10_27_0_0" index="0" speed="3.65" length="4.67" shape="100.00,271.60 98.80,270.80 98.40,270.00 98.80,269.20 100.00,268.40"/>
    </edge>
    <edge id=":10_69_0" function="internal">
        <lane id=":10_69_0_0" index="0" speed="3.65" length="4.67" shape="101.60,690.00 100.80,691.20 100.00,691.60 99.20,691.20 98.40,690.00"/>
    </edge>
    <edge id=":12_88_0" function="internal">
        <lane id=":12_88_0_0" index="0" speed="3.65" length="4.67" shape="120.72,881.43 119.28,881.25 118.57,880.72 118.57,879.82 119.28,878.57"/>
    </edge>
    <edge id=":13_36_0" function="internal">
        <lane id=":13_36_0_0" index="0" speed="3.65" length="4.67" shape="130.39,358.45 131.36,359.51 131.55,360.39 130.97,361.07 129.61,361.55"/>
    </edge>
    <edge id=":13_51_0" function="internal">
        <lane id=":13_51_0_0" index="0" speed="3.65" length="4.67" shape="130.72,508.57 131.43,509.82 131.43,510.72 130.72,511.25 129.28,511.43"/>
    </edge>
    <edge id=":13_53_0" function="internal">
        <lane id=":13_53_0_0" index="0" speed="3.65" length="4.67" shape="129.49,531.52 128.61,530.38 128.48,529.49 129.11,528.86 130.51,528.48"/>
    </edge>
    <edge id=":14_17_0" function="internal">
        <lane id=":14_17_0_0" index="0" speed="13.89" length="15.89" shape="146.57,165.69 143.70,168.31 140.49,170.80 137.11,173.04 133.71,174.93"/>
    </edge>
    <edge id=":14_17_1" function="internal">
        <lane id=":14_17_1_0" index="0" speed="7.80" length="6.78" shape="146.57,165.69 143.26,168.16 140.66,168.69"/>
    </edge>
    <edge id=":14_17_2" function="internal">
        <lane id=":14_17_2_0" index="0" speed="3.65" length="2.34" shape="146.57,165.69 145.15,165.98 144.31,165.69"/>
    </edge>
    <edge id=":14_17_9" function="internal">
        <lane id=":14_17_9_0" index="0" speed="7.80" length="8.10" shape="140.66,168.69 140.06,168.81 136.98,167.66 134.02,164.69"/>
    </edge>
    <edge id=":14_17_10" function="internal">
        <lane id=":14_17_10_0" index="0" speed="3.65" length="2.34" shape="144.31,165.69 144.02,164.85 144.31,163.43"/>
    </edge>
    <edge id=":14_17_3" function="internal">
        <lane id=":14_17_3_0" index="0" speed="6.26" length="9.16" shape="136.58,162.77 138.41,164.61 140.31,165.33 142.27,164.94 144.31,163.43"/>
    </edge>
    <edge id=":14_17_4" function="internal">
        <lane id=":14_17_4_0" index="0" speed="7.72" length="14.92" shape="136.58,162.77 138.59,166.46 138.79,169.71 137.16,172.54 133.71,174.93"/>
    </edge>
    <edge id=":14_17_5" function="internal">
        <lane id=":14_17_5_0" index="0" speed="3.65" length="4.67" shape="136.58,162.77 136.66,164.21 136.26,165.01 135.38,165.17 134.02,164.69"/>
    </edge>
    <edge id=":14_17_6" function="internal">
        <lane id=":14_17_6_0" index="0" speed="6.15" length="9.06" shape="132.28,172.07 134.37,170.62 135.36,168.90 135.24,166.93 134.02,164.69"/>
    </edge>
    <edge id=":14_17_7" function="internal">
        <lane id=":14_17_7_0" index="0" speed="13.89" length="14.87" shape="132.28,172.07 135.55,170.28 138.64,168.24 141.56,165.96 144.31,163.43"/>
    </edge>
    <edge id=":14_17_8" function="internal">
        <lane id=":14_17_8_0" index="0" speed="3.65" length="2.34" shape="132.28,172.07 133.71,172.25 134.42,172.79"/>
    </edge>
    <edge id=":14_17_11" function="internal">
        <lane id=":14_17_11_0" index="0" speed="3.65" length="2.34" shape="134.42,172.79 134.42,173.68 133.71,174.93"/>
    </edge>
    <edge id=":14_3_0" function="internal">
        <lane id=":14_3_0_0" index="0" speed="3.65" length="4.67" shape="138.40,30.00 139.20,28.80 140.00,28.40 140.80,28.80 141.60,30.00"/>
    </edge>
    <edge id=":14_7_0" function="internal">
        <lane id=":14_7_0_0" index="0" speed="3.65" length="4.67" shape="141.60,70.00 140.80,71.20 140.00,71.60 139.20,71.20 138.40,70.00"/>
    </edge>
    <edge id=":15_54_0" function="internal">
        <lane id=":15_54_0_0" index="0" speed="3.65" length="4.67" shape="148.40,540.00 149.20,538.80 150.00,538.40 150.80,538.80 151.60,540.00"/>
    </edge>
    <edge id=":15_73_0" function="internal">
        <lane id=":15_73_0_0" index="0" speed="3.65" length="4.67" shape="150.00,728.40 151.20,729.20 151.60,730.00 151.20,730.80 150.00,731.60"/>
    </edge>
    <edge id=":15_75_0" function="internal">
        <lane id=":15_75_0_0" index="0" speed="13.89" length="15.21" shape="149.70,757.93 149.15,754.19 148.74,750.39 148.49,746.58 148.40,742.80"/>
    </edge>
    <edge id=":15_75_1" function="internal">
        <lane id=":15_75_1_0" index="0" speed="7.74" length="6.35" shape="149.70,757.93 149.61,753.76 150.49,751.77"/>
    </edge>
    <edge id=":15_75_2" function="internal">
        <lane id=":15_75_2_0" index="0" speed="3.65" length="2.34" shape="149.70,757.93 150.29,756.62 151.02,756.09"/>
    </edge>
    <edge id=":15_75_9" function="internal">
        <lane id=":15_75_9_0" index="0" speed="7.74" length="8.51" shape="150.49,751.77 150.93,750.78 153.65,749.00 157.78,748.40"/>
    </edge>
    <edge id=":15_75_10" function="internal">
        <lane id=":15_75_10_0" index="0" speed="3.65" length="2.34" shape="151.02,756.09 151.87,756.36 152.86,757.41"/>
    </edge>
    <edge id=":15_75_3" function="internal">
        <lane id=":15_75_3_0" index="0" speed="6.18" length="9.05" shape="157.78,751.60 155.26,751.96 153.60,753.05 152.80,754.87 152.86,757.41"/>
    </edge>
    <edge id=":15_75_4" function="internal">
        <lane id=":15_75_4_0" index="0" speed="8.12" length="14.66" shape="157.78,751.60 153.67,751.05 150.74,749.40 148.99,746.65 148.40,742.80"/>
    </edge>
    <edge id=":15_75_5" function="internal">
        <lane id=":15_75_5_0" index="0" speed="3.65" length="4.67" shape="157.78,751.60 156.58,750.80 156.18,750.00 156.58,749.20 157.78,748.40"/>
    </edge>
    <edge id=":15_75_6" function="internal">
        <lane id=":15_75_6_0" index="0" speed="6.66" length="9.50" shape="151.60,742.80 151.99,745.25 153.14,747.00 155.07,748.05 157.78,748.40"/>
    </edge>
    <edge id=":15_75_7" function="internal">
        <lane id=":15_75_7_0" index="0" speed="13.89" length="14.68" shape="151.60,742.80 151.68,746.50 151.92,750.13 152.31,753.75 152.86,757.41"/>
    </edge>
    <edge id=":15_75_8" function="internal">
        <lane id=":15_75_8_0" index="0" speed="3.65" length="2.34" shape="151.60,742.80 150.80,744.00 150.00,744.40"/>
    </edge>
    <edge id=":15_75_11" function="internal">
        <lane id=":15_75_11_0" index="0" speed="3.65" length="2.34" shape="150.00,744.40 149.20,744.00 148.40,742.80"/>
    </edge>
    <edge id=":15_77_0" function="internal">
        <lane id=":15_77_0_0" index="0" speed="3.65" length="4.67" shape="150.00,768.40 151.20,769.20 151.60,770.00 151.20,770.80 150.00,771.60"/>
    </edge>
    <edge id=":15_82_0" function="internal">
        <lane id=":15_82_0_0" index="0" speed="3.65" length="4.67" shape="148.48,820.51 148.86,819.11 149.49,818.48 150.38,818.61 151.52,819.49"/>
    </edge>
    <edge id=":16_27_0" function="internal">
        <lane id=":16_27_0_0" index="0" speed="3.65" length="4.67" shape="158.40,270.00 159.20,268.80 160.00,268.40 160.80,268.80 161.60,270.00"/>
    </edge>
    <edge id=":16_42_0" function="internal">
        <lane id=":16_42_0_0" index="0" speed="3.65" length="4.67" shape="161.60,420.00 160.80,421.20 160.00,421.60 159.20,421.20 158.40,420.00"/>
    </edge>
    <edge id=":16_45_0" function="internal">
        <lane id=":16_45_0_0" index="0" speed="3.65" length="4.67" shape="158.53,449.37 159.74,448.58 160.63,448.53 161.21,449.21 161.47,450.63"/>
    </edge>
    <edge id=":16_81_0" function="internal">
        <lane id=":16_81_0_0" index="0" speed="3.65" length="4.67" shape="161.58,809.74 160.99,811.05 160.26,811.58 159.41,811.32 158.42,810.26"/>
    </edge>
    <edge id=":16_86_0" function="internal">
        <lane id=":16_86_0_0" index="0" speed="3.65" length="4.67" shape="159.28,858.57 160.72,858.75 161.43,859.28 161.43,860.18 160.72,861.43"/>
    </edge>
    <edge id=":19_99_0" function="internal">
        <lane id=":19_99_0_0" index="0" speed="3.65" length="4.67" shape="191.60,990.00 190.80,991.20 190.00,991.60 189.20,991.20 188.40,990.00"/>
    </edge>
    <edge id=":20_27_0" function="internal">
        <lane id=":20_27_0_0" index="0" speed="3.65" length="4.67" shape="198.40,270.00 199.20,268.80 200.00,268.40 200.80,268.80 201.60,270.00"/>
    </edge>
    <edge id=":20_42_0" function="internal">
        <lane id=":20_42_0_0" index="0" speed="3.65" length="4.67" shape="201.60,420.00 200.80,421.20 200.00,421.60 199.20,421.20 198.40,420.00"/>
    </edge>
    <edge id=":22_0_0" function="internal">
        <lane id=":22_0_0_0" index="0" speed="3.65" length="4.67" shape="218.40,0.00 219.20,-1.20 220.00,-1.60 220.80,-1.20 221.60,0.00"/>
    </edge>
    <edge id=":22_13_0" function="internal">
        <lane id=":22_13_0_0" index="0" speed="3.65" length="4.67" shape="220.00,131.60 218.80,130.80 218.40,130.00 218.80,129.20 220.00,128.40"/>
    </edge>
    <edge id=":22_17_0" function="internal">
        <lane id=":22_17_0_0" index="0" speed="3.65" length="4.67" shape="220.00,171.60 218.80,170.80 218.40,170.00 218.80,169.20 220.00,168.40"/>
    </edge>
    <edge id=":22_27_0" function="internal">
        <lane id=":22_27_0_0" index="0" speed="3.65" length="4.67" shape="221.60,270.00 220.80,271.20 220.00,271.60 219.20,271.20 218.40,270.00"/>
    </edge>
    <edge id=":22_3_0" function="internal">
        <lane id=":22_3_0_0" index="0" speed="3.65" length="4.67" shape="220.00,28.40 221.20,29.20 221.60,30.00 221.20,30.80 220.00,31.60"/>
    </edge>
    <edge id=":22_4_0" function="internal">
        <lane id=":22_4_0_0" index="0" speed="3.65" length="4.67" shape="220.00,41.60 218.80,40.80 218.40,40.00 218.80,39.20 220.00,38.40"/>
    </edge>
    <edge id=":22_8_0" function="internal">
        <lane id=":22_8_0_0" index="0" speed="3.65" length="4.67" shape="220.00,81.60 218.80,80.80 218.40,80.00 218.80,79.20 220.00,78.40"/>
    </edge>
    <edge id=":22_9_0" function="internal">
        <lane id=":22_9_0_0" index="0" speed="3.65" length="4.67" shape="218.87,88.87 220.28,88.59 221.13,88.87 221.41,89.72 221.13,91.13"/>
    </edge>
    <edge id=":23_79_0" function="internal">
        <lane id=":23_79_0_0" index="0" speed="3.65" length="4.67" shape="229.25,791.41 228.56,790.14 228.59,789.25 229.32,788.73 230.75,788.59"/>
    </edge>
    <edge id=":24_42_0" function="internal">
        <lane id=":24_42_0_0" index="0" speed="3.65" length="4.67" shape="241.55,420.39 240.49,421.36 239.61,421.55 238.93,420.97 238.45,419.61"/>
    </edge>
    <edge id=":24_62_0" function="internal">
        <lane id=":24_62_0_0" index="0" speed="3.65" length="4.67" shape="240.00,621.60 238.80,620.80 238.40,620.00 238.80,619.20 240.00,618.40"/>
    </edge>
    <edge id=":24_66_0" function="internal">
        <lane id=":24_66_0_0" index="0" speed="3.65" length="4.67" shape="240.00,661.60 238.80,660.80 238.40,660.00 238.80,659.20 240.00,658.40"/>
    </edge>
    <edge id=":24_87_0" function="internal">
        <lane id=":24_87_0_0" index="0" speed="3.65" length="4.67" shape="241.52,870.51 240.38,871.39 239.49,871.52 238.86,870.89 238.48,869.49"/>
    </edge>
    <edge id=":25_27_0" function="internal">
        <lane id=":25_27_0_0" index="0" speed="3.65" length="4.67" shape="248.40,270.00 249.20,268.80 250.00,268.40 250.80,268.80 251.60,270.00"/>
    </edge>
    <edge id=":25_48_0" function="internal">
        <lane id=":25_48_0_0" index="0" speed="3.65" length="4.67" shape="248.44,480.36 248.95,479.01 249.64,478.44 250.51,478.65 251.56,479.64"/>
    </edge>
    <edge id=":25_75_0" function="internal">
        <lane id=":25_75_0_0" index="0" speed="3.65" length="4.67" shape="250.00,748.40 251.20,749.20 251.60,750.00 251.20,750.80 250.00,751.60"/>
    </edge>
    <edge id=":26_81_0" function="internal">
        <lane id=":26_81_0_0" index="0" speed="3.65" length="4.67" shape="258.48,809.49 259.62,808.61 260.51,808.48 261.14,809.11 261.52,810.51"/>
    </edge>
    <edge id=":27_44_0" function="internal">
        <lane id=":27_44_0_0" index="0" speed="3.65" length="4.67" shape="270.72,438.57 271.43,439.82 271.43,440.72 270.72,441.25 269.28,441.43"/>
    </edge>
    <edge id=":27_55_0" function="internal">
        <lane id=":27_55_0_0" index="0" speed="3.65" length="4.67" shape="270.00,548.40 271.20,549.20 271.60,550.00 271.20,550.80 270.00,551.60"/>
    </edge>
    <edge id=":28_34_0" function="internal">
        <lane id=":28_34_0_0" index="0" speed="3.65" length="4.67" shape="279.28,341.43 278.57,340.18 278.57,339.28 279.28,338.75 280.72,338.57"/>
    </edge>
    <edge id=":28_59_0" function="internal">
        <lane id=":28_59_0_0" index="0" speed="3.65" length="4.67" shape="280.55,591.50 279.15,591.16 278.50,590.55 278.60,589.66 279.45,588.50"/>
    </edge>
    <edge id=":28_62_0" function="internal">
        <lane id=":28_62_0_0" index="0" speed="3.65" length="4.67" shape="280.00,618.40 281.20,619.20 281.60,620.00 281.20,620.80 280.00,621.60"/>
    </edge>
    <edge id=":28_66_0" function="internal">
        <lane id=":28_66_0_0" index="0" speed="3.65" length="4.67" shape="280.00,658.40 281.20,659.20 281.60,660.00 281.20,660.80 280.00,661.60"/>
    </edge>
    <edge id=":28_69_0" function="internal">
        <lane id=":28_69_0_0" index="0" speed="8.56" length="10.15" shape="287.20,691.60 284.32,691.87 281.92,692.69 280.01,694.04 278.58,695.95"/>
    </edge>
    <edge id=":28_69_1" function="internal">
        <lane id=":28_69_1_0" index="0" speed="8.00" length="14.19" shape="287.20,691.60 283.35,691.05 280.60,689.40 278.95,686.65 278.40,682.80"/>
    </edge>
    <edge id=":28_69_2" function="internal">
        <lane id=":28_69_2_0" index="0" speed="3.65" length="4.67" shape="287.20,691.60 286.00,690.80 285.60,690.00 286.00,689.20 287.20,688.40"/>
    </edge>
    <edge id=":28_69_3" function="internal">
        <lane id=":28_69_3_0" index="0" speed="6.51" length="9.03" shape="281.60,682.80 281.95,685.25 283.00,687.00 284.75,688.05 287.20,688.40"/>
    </edge>
    <edge id=":28_69_4" function="internal">
        <lane id=":28_69_4_0" index="0" speed="13.89" length="13.64" shape="281.60,682.80 281.46,686.35 280.99,689.60 280.06,692.74 278.58,695.95"/>
    </edge>
    <edge id=":28_69_5" function="internal">
        <lane id=":28_69_5_0" index="0" speed="3.65" length="2.34" shape="281.60,682.80 280.80,684.00 280.00,684.40"/>
    </edge>
    <edge id=":28_69_9" function="internal">
        <lane id=":28_69_9_0" index="0" speed="3.65" length="2.34" shape="280.00,684.40 279.20,684.00 278.40,682.80"/>
    </edge>
    <edge id=":28_69_6" function="internal">
        <lane id=":28_69_6_0" index="0" speed="13.89" length="12.08" shape="275.77,694.41 277.19,691.45 277.98,688.84 278.33,686.11 278.40,682.80"/>
    </edge>
    <edge id=":28_69_7" function="internal">
        <lane id=":28_69_7_0" index="0" speed="9.83" length="4.80" shape="275.77,694.41 277.71,691.78 278.94,690.88"/>
    </edge>
    <edge id=":28_69_8" function="internal">
        <lane id=":28_69_8_0" index="0" speed="3.65" length="2.22" shape="275.77,694.41 277.05,693.74 277.82,693.77"/>
    </edge>
    <edge id=":28_69_10" function="internal">
        <lane id=":28_69_10_0" index="0" speed="9.83" length="8.79" shape="278.94,690.88 280.27,689.90 283.43,688.78 287.20,688.40"/>
    </edge>
    <edge id=":28_69_11" function="internal">
        <lane id=":28_69_11_0" index="0" speed="3.65" length="2.45" shape="277.82,693.77 277.94,693.77 278.45,694.51 278.58,695.95"/>
    </edge>
    <edge id=":29_4_0" function="internal">
        <lane id=":29_4_0_0" index="0" speed="3.65" length="4.67" shape="291.60,40.00 290.80,41.20 290.00,41.60 289.20,41.20 288.40,40.00"/>
    </edge>
    <edge id=":29_42_0" function="internal">
        <lane id=":29_42_0_0" index="0" speed="3.65" length="4.67" shape="288.72,420.96 288.64,419.52 289.04,418.72 289.92,418.56 291.28,419.04"/>
    </edge>
    <edge id=":29_82_0" function="internal">
        <lane id=":29_82_0_0" index="0" speed="3.65" length="4.67" shape="291.43,820.72 290.18,821.43 289.28,821.43 288.75,820.72 288.57,819.28"/>
    </edge>
    <edge id=":30_17_0" function="internal">
        <lane id=":30_17_0_0" index="0" speed="3.65" length="4.67" shape="298.40,170.00 299.20,168.80 300.00,168.40 300.80,168.80 301.60,170.00"/>
    </edge>
    <edge id=":30_22_0" function="internal">
        <lane id=":30_22_0_0" index="0" speed="3.65" length="4.67" shape="300.00,218.40 301.20,219.20 301.60,220.00 301.20,220.80 300.00,221.60"/>
    </edge>
    <edge id=":30_27_0" function="internal">
        <lane id=":30_27_0_0" index="0" speed="3.65" length="4.67" shape="301.60,270.00 300.80,271.20 300.00,271.60 299.20,271.20 298.40,270.00"/>
    </edge>
    <edge id=":31_13_0" function="internal">
        <lane id=":31_13_0_0" index="0" speed="3.65" length="4.67" shape="310.00,128.40 311.20,129.20 311.60,130.00 311.20,130.80 310.00,131.60"/>
    </edge>
    <edge id=":31_17_0" function="internal">
        <lane id=":31_17_0_0" index="0" speed="3.65" length="4.67" shape="311.60,170.00 310.80,171.20 310.00,171.60 309.20,171.20 308.40,170.00"/>
    </edge>
    <edge id=":31_39_0" function="internal">
        <lane id=":31_39_0_0" index="0" speed="3.65" length="4.67" shape="309.04,391.28 308.56,389.92 308.72,389.04 309.52,388.64 310.96,388.72"/>
    </edge>
    <edge id=":31_4_0" function="internal">
        <lane id=":31_4_0_0" index="0" speed="3.65" length="4.67" shape="308.40,40.00 309.20,38.80 310.00,38.40 310.80,38.80 311.60,40.00"/>
    </edge>
    <edge id=":31_69_0" function="internal">
        <lane id=":31_69_0_0" index="0" speed="3.65" length="4.67" shape="308.40,690.00 309.20,688.80 310.00,688.40 310.80,688.80 311.60,690.00"/>
    </edge>
    <edge id=":31_8_0" function="internal">
        <lane id=":31_8_0_0" index="0" speed="3.65" length="4.67" shape="310.00,78.40 311.20,79.20 311.60,80.00 311.20,80.80 310.00,81.60"/>
    </edge>
    <edge id=":32_36_0" function="internal">
        <lane id=":32_36_0_0" index="0" speed="3.65" length="4.67" shape="320.72,358.57 321.43,359.82 321.43,360.72 320.72,361.25 319.28,361.43"/>
    </edge>
    <edge id=":32_51_0" function="internal">
        <lane id=":32_51_0_0" index="0" speed="3.65" length="4.67" shape="318.63,510.82 318.70,509.38 319.18,508.63 320.07,508.56 321.37,509.18"/>
    </edge>
    <edge id=":33_57_0" function="internal">
        <lane id=":33_57_0_0" index="0" speed="3.65" length="4.67" shape="328.40,570.00 329.20,568.80 330.00,568.40 330.80,568.80 331.60,570.00"/>
    </edge>
    <edge id=":33_69_0" function="internal">
        <lane id=":33_69_0_0" index="0" speed="3.65" length="4.67" shape="331.60,690.00 330.80,691.20 330.00,691.60 329.20,691.20 328.40,690.00"/>
    </edge>
    <edge id=":34_17_0" function="internal">
        <lane id=":34_17_0_0" index="0" speed="3.65" length="4.67" shape="338.40,170.00 339.20,168.80 340.00,168.40 340.80,168.80 341.60,170.00"/>
    </edge>
    <edge id=":34_27_0" function="internal">
        <lane id=":34_27_0_0" index="0" speed="3.65" length="4.67" shape="341.60,270.00 340.80,271.20 340.00,271.60 339.20,271.20 338.40,270.00"/>
    </edge>
    <edge id=":34_34_0" function="internal">
        <lane id=":34_34_0_0" index="0" speed="3.65" length="4.67" shape="339.04,341.28 338.56,339.92 338.72,339.04 339.52,338.64 340.96,338.72"/>
    </edge>
    <edge id=":35_56_0" function="internal">
        <lane id=":35_56_0_0" index="0" speed="3.65" length="4.67" shape="351.37,559.18 351.30,560.62 350.82,561.37 349.93,561.44 348.63,560.82"/>
    </edge>
    <edge id=":37_56_0" function="internal">
        <lane id=":37_56_0_0" index="0" speed="3.65" length="4.67" shape="368.40,560.00 369.20,558.80 370.00,558.40 370.80,558.80 371.60,560.00"/>
    </edge>
    <edge id=":37_61_0" function="internal">
        <lane id=":37_61_0_0" index="0" speed="3.65" length="4.67" shape="370.00,611.60 368.80,610.80 368.40,610.00 368.80,609.20 370.00,608.40"/>
    </edge>
    <edge id=":37_69_0" function="internal">
        <lane id=":37_69_0_0" index="0" speed="3.65" length="4.67" shape="371.60,690.00 370.80,691.20 370.00,691.60 369.20,691.20 368.40,690.00"/>
    </edge>
    <edge id=":38_14_0" function="internal">
        <lane id=":38_14_0_0" index="0" speed="3.65" length="4.67" shape="380.00,141.60 378.80,140.80 378.40,140.00 378.80,139.20 380.00,138.40"/>
    </edge>
    <edge id=":38_17_0" function="internal">
        <lane id=":38_17_0_0" index="0" speed="3.65" length="4.67" shape="380.00,168.40 381.20,169.20 381.60,170.00 381.20,170.80 380.00,171.60"/>
    </edge>
    <edge id=":38_27_0" function="internal">
        <lane id=":38_27_0_0" index="0" speed="3.65" length="4.67" shape="381.60,270.00 380.80,271.20 380.00,271.60 379.20,271.20 378.40,270.00"/>
    </edge>
    <edge id=":38_4_0" function="internal">
        <lane id=":38_4_0_0" index="0" speed="3.65" length="4.67" shape="380.00,38.40 381.20,39.20 381.60,40.00 381.20,40.80 380.00,41.60"/>
    </edge>
    <edge id=":38_8_0" function="internal">
        <lane id=":38_8_0_0" index="0" speed="3.65" length="4.67" shape="380.00,81.60 378.80,80.80 378.40,80.00 378.80,79.20 380.00,78.40"/>
    </edge>
    <edge id=":40_27_0" function="internal">
        <lane id=":40_27_0_0" index="0" speed="3.65" length="4.67" shape="400.00,268.40 401.20,269.20 401.60,270.00 401.20,270.80 400.00,271.60"/>
    </edge>
    <edge id=":40_69_0" function="internal">
        <lane id=":40_69_0_0" index="0" speed="3.65" length="4.67" shape="400.00,688.40 401.20,689.20 401.60,690.00 401.20,690.80 400.00,691.60"/>
    </edge>
    <edge id=":42_38_0" function="internal">
        <lane id=":42_38_0_0" index="0" speed="3.65" length="4.67" shape="420.39,378.45 421.36,379.51 421.55,380.39 420.97,381.07 419.61,381.55"/>
    </edge>
    <edge id=":42_98_0" function="internal">
        <lane id=":42_98_0_0" index="0" speed="3.65" length="4.67" shape="421.28,980.96 419.92,981.44 419.04,981.28 418.64,980.48 418.72,979.04"/>
    </edge>
    <edge id=":43_61_0" function="internal">
        <lane id=":43_61_0_0" index="0" speed="3.65" length="4.67" shape="428.40,610.00 429.20,608.80 430.00,608.40 430.80,608.80 431.60,610.00"/>
    </edge>
    <edge id=":43_65_0" function="internal">
        <lane id=":43_65_0_0" index="0" speed="3.65" length="4.67" shape="431.60,650.00 430.80,651.20 430.00,651.60 429.20,651.20 428.40,650.00"/>
    </edge>
    <edge id=":44_52_0" function="internal">
        <lane id=":44_52_0_0" index="0" speed="3.65" length="4.67" shape="441.13,521.13 439.72,521.41 438.87,521.13 438.59,520.28 438.87,518.87"/>
    </edge>
    <edge id=":45_94_0" function="internal">
        <lane id=":45_94_0_0" index="0" speed="3.65" length="4.67" shape="448.72,939.04 450.08,938.56 450.96,938.72 451.36,939.52 451.28,940.96"/>
    </edge>
    <edge id=":46_35_0" function="internal">
        <lane id=":46_35_0_0" index="0" speed="3.65" length="4.67" shape="461.55,350.39 460.49,351.36 459.61,351.55 458.93,350.97 458.45,349.61"/>
    </edge>
    <edge id=":47_31_0" function="internal">
        <lane id=":47_31_0_0" index="0" speed="3.65" length="4.67" shape="468.45,309.61 469.51,308.64 470.39,308.45 471.07,309.03 471.55,310.39"/>
    </edge>
    <edge id=":48_56_0" function="internal">
        <lane id=":48_56_0_0" index="0" speed="3.65" length="4.67" shape="481.13,558.87 481.41,560.28 481.13,561.13 480.28,561.41 478.87,561.13"/>
    </edge>
    <edge id=":49_43_0" function="internal">
        <lane id=":49_43_0_0" index="0" speed="3.65" length="4.67" shape="491.60,430.00 490.80,431.20 490.00,431.60 489.20,431.20 488.40,430.00"/>
    </edge>
    <edge id=":50_26_0" function="internal">
        <lane id=":50_26_0_0" index="0" speed="3.65" length="4.67" shape="498.43,259.69 499.45,258.67 500.31,258.43 501.02,258.98 501.57,260.31"/>
    </edge>
    <edge id=":50_99_0" function="internal">
        <lane id=":50_99_0_0" index="0" speed="3.65" length="4.67" shape="501.13,988.87 501.41,990.28 501.13,991.13 500.28,991.41 498.87,991.13"/>
    </edge>
    <edge id=":53_43_0" function="internal">
        <lane id=":53_43_0_0" index="0" speed="3.65" length="4.67" shape="528.87,428.87 530.28,428.59 531.13,428.87 531.41,429.72 531.13,431.13"/>
    </edge>
    <edge id=":54_32_0" function="internal">
        <lane id=":54_32_0_0" index="0" speed="3.65" length="4.67" shape="538.40,320.00 539.20,318.80 540.00,318.40 540.80,318.80 541.60,320.00"/>
    </edge>
    <edge id=":54_43_0" function="internal">
        <lane id=":54_43_0_0" index="0" speed="3.65" length="4.67" shape="540.00,428.40 541.20,429.20 541.60,430.00 541.20,430.80 540.00,431.60"/>
    </edge>
    <edge id=":54_57_0" function="internal">
        <lane id=":54_57_0_0" index="0" speed="3.65" length="4.67" shape="541.60,570.00 540.80,571.20 540.00,571.60 539.20,571.20 538.40,570.00"/>
    </edge>
    <edge id=":56_28_0" function="internal">
        <lane id=":56_28_0_0" index="0" speed="3.65" length="4.67" shape="558.40,280.00 559.20,278.80 560.00,278.40 560.80,278.80 561.60,280.00"/>
    </edge>
    <edge id=":56_32_0" function="internal">
        <lane id=":56_32_0_0" index="0" speed="3.65" length="4.67" shape="561.60,320.00 560.80,321.20 560.00,321.60 559.20,321.20 558.40,320.00"/>
    </edge>
    <edge id=":57_47_0" function="internal">
        <lane id=":57_47_0_0" index="0" speed="3.65" length="4.67" shape="570.00,471.60 568.80,470.80 568.40,470.00 568.80,469.20 570.00,468.40"/>
    </edge>
    <edge id=":57_57_0" function="internal">
        <lane id=":57_57_0_0" index="0" speed="3.65" length="4.67" shape="571.60,570.00 570.80,571.20 570.00,571.60 569.20,571.20 568.40,570.00"/>
    </edge>
    <edge id=":58_32_0" function="internal">
        <lane id=":58_32_0_0" index="0" speed="3.65" length="4.67" shape="578.40,320.00 579.20,318.80 580.00,318.40 580.80,318.80 581.60,320.00"/>
    </edge>
    <edge id=":58_44_0" function="internal">
        <lane id=":58_44_0_0" index="0" speed="3.65" length="4.67" shape="581.60,440.00 580.80,441.20 580.00,441.60 579.20,441.20 578.40,440.00"/>
    </edge>
    <edge id=":60_20_0" function="internal">
        <lane id=":60_20_0_0" index="0" speed="3.65" length="4.67" shape="598.40,200.00 599.20,198.80 600.00,198.40 600.80,198.80 601.60,200.00"/>
    </edge>
    <edge id=":60_28_0" function="internal">
        <lane id=":60_28_0_0" index="0" speed="3.65" length="4.67" shape="600.00,281.60 598.80,280.80 598.40,280.00 598.80,279.20 600.00,278.40"/>
    </edge>
    <edge id=":60_32_0" function="internal">
        <lane id=":60_32_0_0" index="0" speed="3.65" length="4.67" shape="601.60,320.00 600.80,321.20 600.00,321.60 599.20,321.20 598.40,320.00"/>
    </edge>
    <edge id=":61_14_0" function="internal">
        <lane id=":61_14_0_0" index="0" speed="6.51" length="9.03" shape="608.40,147.20 608.05,144.75 607.00,143.00 605.25,141.95 602.80,141.60"/>
    </edge>
    <edge id=":61_14_1" function="internal">
        <lane id=":61_14_1_0" index="0" speed="13.89" length="14.40" shape="608.40,147.20 608.40,132.80"/>
    </edge>
    <edge id=":61_14_2" function="internal">
        <lane id=":61_14_2_0" index="0" speed="3.65" length="2.34" shape="608.40,147.20 609.20,146.00 610.00,145.60"/>
    </edge>
    <edge id=":61_14_9" function="internal">
        <lane id=":61_14_9_0" index="0" speed="3.65" length="2.34" shape="610.00,145.60 610.80,146.00 611.60,147.20"/>
    </edge>
    <edge id=":61_14_3" function="internal">
        <lane id=":61_14_3_0" index="0" speed="13.89" length="14.40" shape="611.60,132.80 611.60,147.20"/>
    </edge>
    <edge id=":61_14_4" function="internal">
        <lane id=":61_14_4_0" index="0" speed="8.00" length="5.93" shape="611.60,132.80 611.05,136.65 610.00,138.40"/>
    </edge>
    <edge id=":61_14_5" function="internal">
        <lane id=":61_14_5_0" index="0" speed="3.65" length="2.34" shape="611.60,132.80 610.80,134.00 610.00,134.40"/>
    </edge>