<?xml version="1.0" encoding="UTF-8"?>

<!-- generated on Thu Feb  7 13:57:11 2019 by Eclipse SUMO netgenerate Version UNKNOWN
<configuration xmlns:xsi="http://www.w3.org/2001/XMLSchema-instance" xsi:noNamespaceSchemaLocation="http://sumo.dlr.de/xsd/netgenerateConfiguration.xsd">

    <town-sim_network>
        <town-sim value="true"/>
        <town-sim.file value="C:\Users\julinas\Downloads\tsp200x200_01.txt"/>
    </town-sim_network>

    <output>
        <output-file value="tsp200x200_01.net.xml"/>
    </output>

</configuration>
-->

<net version="1.0" junctionCornerDetail="5" limitTurnSpeed="5.50" xmlns:xsi="http://www.w3.org/2001/XMLSchema-instance" xsi:noNamespaceSchemaLocation="http://sumo.dlr.de/xsd/net_file.xsd">

    <location netOffset="0.00,0.00" convBoundary="0.00,0.00,1990.00,1960.00" origBoundary="0.00,0.00,1990.00,1960.00" projParameter="!"/>

    <edge id=":0_101_0" function="internal">
        <lane id=":0_101_0_0" index="0" speed="3.65" length="4.67" shape="0.00,1011.60 -1.20,1010.80 -1.60,1010.00 -1.20,1009.20 0.00,1008.40"/>
    </edge>
    <edge id=":0_73_0" function="internal">
        <lane id=":0_73_0_0" index="0" speed="3.65" length="4.67" shape="-0.00,731.60 -1.20,730.80 -1.60,730.00 -1.20,729.20 -0.00,728.40"/>
    </edge>
    <edge id=":0_87_0" function="internal">
        <lane id=":0_87_0_0" index="0" speed="3.65" length="4.67" shape="0.00,871.60 -1.20,870.80 -1.60,870.00 -1.20,869.20 0.00,868.40"/>
    </edge>
    <edge id=":102_50_0" function="internal">
        <lane id=":102_50_0_0" index="0" speed="3.65" length="4.67" shape="1018.40,500.00 1019.20,498.80 1020.00,498.40 1020.80,498.80 1021.60,500.00"/>
    </edge>
    <edge id=":102_97_0" function="internal">
        <lane id=":102_97_0_0" index="0" speed="3.65" length="4.67" shape="1021.13,968.87 1021.41,970.28 1021.13,971.13 1020.28,971.41 1018.87,971.13"/>
    </edge>
    <edge id=":103_126_0" function="internal">
        <lane id=":103_126_0_0" index="0" speed="3.65" length="4.67" shape="1031.13,1258.87 1031.41,1260.28 1031.13,1261.13 1030.28,1261.41 1028.87,1261.13"/>
    </edge>
    <edge id=":103_28_0" function="internal">
        <lane id=":103_28_0_0" index="0" speed="3.65" length="4.67" shape="1030.00,278.40 1031.20,279.20 1031.60,280.00 1031.20,280.80 1030.00,281.60"/>
    </edge>
    <edge id=":103_32_0" function="internal">
        <lane id=":103_32_0_0" index="0" speed="3.65" length="4.67" shape="1030.00,318.40 1031.20,319.20 1031.60,320.00 1031.20,320.80 1030.00,321.60"/>
    </edge>
    <edge id=":103_37_0" function="internal">
        <lane id=":103_37_0_0" index="0" speed="3.65" length="4.67" shape="1030.00,368.40 1031.20,369.20 1031.60,370.00 1031.20,370.80 1030.00,371.60"/>
    </edge>
    <edge id=":103_41_0" function="internal">
        <lane id=":103_41_0_0" index="0" speed="3.65" length="4.67" shape="1030.00,408.40 1031.20,409.20 1031.60,410.00 1031.20,410.80 1030.00,411.60"/>
    </edge>
    <edge id=":103_70_0" function="internal">
        <lane id=":103_70_0_0" index="0" speed="3.65" length="4.67" shape="1028.40,700.00 1029.20,698.80 1030.00,698.40 1030.80,698.80 1031.60,700.00"/>
    </edge>
    <edge id=":103_80_0" function="internal">
        <lane id=":103_80_0_0" index="0" speed="3.65" length="4.67" shape="1031.60,800.00 1030.80,801.20 1030.00,801.60 1029.20,801.20 1028.40,800.00"/>
    </edge>
    <edge id=":104_18_0" function="internal">
        <lane id=":104_18_0_0" index="0" speed="3.65" length="4.67" shape="1038.45,179.61 1039.51,178.64 1040.39,178.45 1041.07,179.03 1041.55,180.39"/>
    </edge>
    <edge id=":104_20_0" function="internal">
        <lane id=":104_20_0_0" index="0" speed="3.65" length="4.67" shape="1038.40,200.00 1039.20,198.80 1040.00,198.40 1040.80,198.80 1041.60,200.00"/>
    </edge>
    <edge id=":104_35_0" function="internal">
        <lane id=":104_35_0_0" index="0" speed="3.65" length="4.67" shape="1040.00,351.60 1038.80,350.80 1038.40,350.00 1038.80,349.20 1040.00,348.40"/>
    </edge>
    <edge id=":104_4_0" function="internal">
        <lane id=":104_4_0_0" index="0" speed="3.65" length="4.67" shape="1039.71,38.43 1041.04,39.00 1041.57,39.71 1041.32,40.57 1040.29,41.57"/>
    </edge>
    <edge id=":104_41_0" function="internal">
        <lane id=":104_41_0_0" index="0" speed="3.65" length="4.67" shape="1040.00,411.60 1038.80,410.80 1038.40,410.00 1038.80,409.20 1040.00,408.40"/>
    </edge>
    <edge id=":104_50_0" function="internal">
        <lane id=":104_50_0_0" index="0" speed="3.65" length="4.67" shape="1041.60,500.00 1040.80,501.20 1040.00,501.60 1039.20,501.20 1038.40,500.00"/>
    </edge>
    <edge id=":107_73_0" function="internal">
        <lane id=":107_73_0_0" index="0" speed="7.09" length="3.06" shape="1071.04,731.60 1070.14,731.58 1069.52,731.47 1068.96,731.19 1068.22,730.68"/>
    </edge>
    <edge id=":107_73_1" function="internal">
        <lane id=":107_73_1_0" index="0" speed="3.65" length="2.70" shape="1071.04,731.60 1069.84,730.80 1069.44,730.00 1069.60,729.67"/>
    </edge>
    <edge id=":107_73_4" function="internal">
        <lane id=":107_73_4_0" index="0" speed="3.65" length="1.97" shape="1069.60,729.67 1069.84,729.20 1071.04,728.40"/>
    </edge>
    <edge id=":107_73_2" function="internal">
        <lane id=":107_73_2_0" index="0" speed="4.43" length="1.02" shape="1070.10,728.09 1070.35,728.26 1070.53,728.36 1070.74,728.39 1071.04,728.40"/>
    </edge>
    <edge id=":107_73_3" function="internal">
        <lane id=":107_73_3_0" index="0" speed="3.65" length="1.99" shape="1070.10,728.09 1070.60,729.45 1070.51,729.99"/>
    </edge>
    <edge id=":107_73_5" function="internal">
        <lane id=":107_73_5_0" index="0" speed="3.65" length="2.68" shape="1070.51,729.99 1070.45,730.33 1069.66,730.74 1068.22,730.68"/>
    </edge>
    <edge id=":108_111_0" function="internal">
        <lane id=":108_111_0_0" index="0" speed="3.65" length="4.67" shape="1080.00,1111.60 1078.80,1110.80 1078.40,1110.00 1078.80,1109.20 1080.00,1108.40"/>
    </edge>
    <edge id=":108_116_0" function="internal">
        <lane id=":108_116_0_0" index="0" speed="3.65" length="4.67" shape="1080.00,1161.60 1078.80,1160.80 1078.40,1160.00 1078.80,1159.20 1080.00,1158.40"/>
    </edge>
    <edge id=":108_121_0" function="internal">
        <lane id=":108_121_0_0" index="0" speed="3.65" length="4.67" shape="1080.00,1211.60 1078.80,1210.80 1078.40,1210.00 1078.80,1209.20 1080.00,1208.40"/>
    </edge>
    <edge id=":108_41_0" function="internal">
        <lane id=":108_41_0_0" index="0" speed="3.65" length="4.67" shape="1080.00,408.40 1081.20,409.20 1081.60,410.00 1081.20,410.80 1080.00,411.60"/>
    </edge>
    <edge id=":108_50_0" function="internal">
        <lane id=":108_50_0_0" index="0" speed="3.65" length="4.67" shape="1078.40,500.00 1079.20,498.80 1080.00,498.40 1080.80,498.80 1081.60,500.00"/>
    </edge>
    <edge id=":108_79_0" function="internal">
        <lane id=":108_79_0_0" index="0" speed="3.65" length="4.67" shape="1080.00,791.60 1078.80,790.80 1078.40,790.00 1078.80,789.20 1080.00,788.40"/>
    </edge>
    <edge id=":108_80_0" function="internal">
        <lane id=":108_80_0_0" index="0" speed="3.65" length="4.67" shape="1080.00,798.40 1081.20,799.20 1081.60,800.00 1081.20,800.80 1080.00,801.60"/>
    </edge>
    <edge id=":108_83_0" function="internal">
        <lane id=":108_83_0_0" index="0" speed="3.65" length="4.67" shape="1080.00,831.60 1078.80,830.80 1078.40,830.00 1078.80,829.20 1080.00,828.40"/>
    </edge>
    <edge id=":108_90_0" function="internal">
        <lane id=":108_90_0_0" index="0" speed="3.65" length="4.67" shape="1080.00,901.60 1078.80,900.80 1078.40,900.00 1078.80,899.20 1080.00,898.40"/>
    </edge>
    <edge id=":108_94_0" function="internal">
        <lane id=":108_94_0_0" index="0" speed="3.65" length="4.67" shape="1080.00,941.60 1078.80,940.80 1078.40,940.00 1078.80,939.20 1080.00,938.40"/>
    </edge>
    <edge id=":108_97_0" function="internal">
        <lane id=":108_97_0_0" index="0" speed="3.65" length="4.67" shape="1080.00,968.40 1081.20,969.20 1081.60,970.00 1081.20,970.80 1080.00,971.60"/>
    </edge>
    <edge id=":109_131_0" function="internal">
        <lane id=":109_131_0_0" index="0" speed="3.65" length="4.67" shape="1090.00,1311.60 1088.80,1310.80 1088.40,1310.00 1088.80,1309.20 1090.00,1308.40"/>
    </edge>
    <edge id=":110_46_0" function="internal">
        <lane id=":110_46_0_0" index="0" speed="3.65" length="4.67" shape="1098.40,460.00 1099.20,458.80 1100.00,458.40 1100.80,458.80 1101.60,460.00"/>
    </edge>
    <edge id=":110_50_0" function="internal">
        <lane id=":110_50_0_0" index="0" speed="3.65" length="4.67" shape="1101.60,500.00 1100.80,501.20 1100.00,501.60 1099.20,501.20 1098.40,500.00"/>
    </edge>
    <edge id=":111_179_0" function="internal">
        <lane id=":111_179_0_0" index="0" speed="3.65" length="4.67" shape="1111.13,1791.13 1109.72,1791.41 1108.87,1791.13 1108.59,1790.28 1108.87,1788.87"/>
    </edge>
    <edge id=":113_111_0" function="internal">
        <lane id=":113_111_0_0" index="0" speed="3.65" length="4.67" shape="1130.00,1108.40 1131.20,1109.20 1131.60,1110.00 1131.20,1110.80 1130.00,1111.60"/>
    </edge>
    <edge id=":113_116_0" function="internal">
        <lane id=":113_116_0_0" index="0" speed="3.65" length="4.67" shape="1130.00,1158.40 1131.20,1159.20 1131.60,1160.00 1131.20,1160.80 1130.00,1161.60"/>
    </edge>
    <edge id=":113_121_0" function="internal">
        <lane id=":113_121_0_0" index="0" speed="3.65" length="4.67" shape="1130.00,1208.40 1131.20,1209.20 1131.60,1210.00 1131.20,1210.80 1130.00,1211.60"/>
    </edge>
    <edge id=":113_126_0" function="internal">
        <lane id=":113_126_0_0" index="0" speed="3.65" length="4.67" shape="1130.00,1258.40 1131.20,1259.20 1131.60,1260.00 1131.20,1260.80 1130.00,1261.60"/>
    </edge>
    <edge id=":114_50_0" function="internal">
        <lane id=":114_50_0_0" index="0" speed="3.65" length="4.67" shape="1140.00,498.40 1141.20,499.20 1141.60,500.00 1141.20,500.80 1140.00,501.60"/>
    </edge>
    <edge id=":114_62_0" function="internal">
        <lane id=":114_62_0_0" index="0" speed="13.89" length="14.40" shape="1138.40,627.20 1138.40,612.80"/>
    </edge>
    <edge id=":114_62_1" function="internal">
        <lane id=":114_62_1_0" index="0" speed="8.00" length="5.93" shape="1138.40,627.20 1138.95,623.35 1140.00,621.60"/>
    </edge>
    <edge id=":114_62_2" function="internal">
        <lane id=":114_62_2_0" index="0" speed="3.65" length="2.34" shape="1138.40,627.20 1139.20,626.00 1140.00,625.60"/>
    </edge>
    <edge id=":114_62_9" function="internal">
        <lane id=":114_62_9_0" index="0" speed="8.00" length="8.26" shape="1140.00,621.60 1140.60,620.60 1143.35,618.95 1147.20,618.40"/>
    </edge>
    <edge id=":114_62_10" function="internal">
        <lane id=":114_62_10_0" index="0" speed="3.65" length="2.34" shape="1140.00,625.60 1140.80,626.00 1141.60,627.20"/>
    </edge>
    <edge id=":114_62_3" function="internal">
        <lane id=":114_62_3_0" index="0" speed="6.51" length="9.03" shape="1147.20,621.60 1144.75,621.95 1143.00,623.00 1141.95,624.75 1141.60,627.20"/>
    </edge>
    <edge id=":114_62_4" function="internal">
        <lane id=":114_62_4_0" index="0" speed="8.00" length="14.19" shape="1147.20,621.60 1143.35,621.05 1140.60,619.40 1138.95,616.65 1138.40,612.80"/>
    </edge>
    <edge id=":114_62_5" function="internal">
        <lane id=":114_62_5_0" index="0" speed="3.65" length="4.67" shape="1147.20,621.60 1146.00,620.80 1145.60,620.00 1146.00,619.20 1147.20,618.40"/>
    </edge>
    <edge id=":114_62_6" function="internal">
        <lane id=":114_62_6_0" index="0" speed="6.51" length="9.03" shape="1141.60,612.80 1141.95,615.25 1143.00,617.00 1144.75,618.05 1147.20,618.40"/>
    </edge>
    <edge id=":114_62_7" function="internal">
        <lane id=":114_62_7_0" index="0" speed="13.89" length="14.40" shape="1141.60,612.80 1141.60,627.20"/>
    </edge>
    <edge id=":114_62_8" function="internal">
        <lane id=":114_62_8_0" index="0" speed="3.65" length="2.34" shape="1141.60,612.80 1140.80,614.00 1140.00,614.40"/>
    </edge>
    <edge id=":114_62_11" function="internal">
        <lane id=":114_62_11_0" index="0" speed="3.65" length="2.34" shape="1140.00,614.40 1139.20,614.00 1138.40,612.80"/>
    </edge>
    <edge id=":114_73_0" function="internal">
        <lane id=":114_73_0_0" index="0" speed="3.65" length="4.67" shape="1141.60,730.00 1140.80,731.20 1140.00,731.60 1139.20,731.20 1138.40,730.00"/>
    </edge>
    <edge id=":115_102_0" function="internal">
        <lane id=":115_102_0_0" index="0" speed="3.65" length="4.67" shape="1151.60,1020.00 1150.80,1021.20 1150.00,1021.60 1149.20,1021.20 1148.40,1020.00"/>
    </edge>
    <edge id=":115_35_0" function="internal">
        <lane id=":115_35_0_0" index="0" speed="3.65" length="4.67" shape="1150.00,348.40 1151.20,349.20 1151.60,350.00 1151.20,350.80 1150.00,351.60"/>
    </edge>
    <edge id=":115_94_0" function="internal">
        <lane id=":115_94_0_0" index="0" speed="3.65" length="4.67" shape="1148.40,940.00 1149.20,938.80 1150.00,938.40 1150.80,938.80 1151.60,940.00"/>
    </edge>
    <edge id=":117_1_0" function="internal">
        <lane id=":117_1_0_0" index="0" speed="3.65" length="4.67" shape="1168.40,10.00 1169.20,8.80 1170.00,8.40 1170.80,8.80 1171.60,10.00"/>
    </edge>
    <edge id=":117_34_0" function="internal">
        <lane id=":117_34_0_0" index="0" speed="13.89" length="14.40" shape="1177.20,341.60 1162.80,341.60"/>
    </edge>
    <edge id=":117_34_1" function="internal">
        <lane id=":117_34_1_0" index="0" speed="8.00" length="5.93" shape="1177.20,341.60 1173.35,341.05 1171.60,340.00"/>
    </edge>
    <edge id=":117_34_2" function="internal">
        <lane id=":117_34_2_0" index="0" speed="3.65" length="2.34" shape="1177.20,341.60 1176.00,340.80 1175.60,340.00"/>
    </edge>
    <edge id=":117_34_9" function="internal">
        <lane id=":117_34_9_0" index="0" speed="8.00" length="8.26" shape="1171.60,340.00 1170.60,339.40 1168.95,336.65 1168.40,332.80"/>
    </edge>
    <edge id=":117_34_10" function="internal">
        <lane id=":117_34_10_0" index="0" speed="3.65" length="2.34" shape="1175.60,340.00 1176.00,339.20 1177.20,338.40"/>
    </edge>
    <edge id=":117_34_3" function="internal">
        <lane id=":117_34_3_0" index="0" speed="6.51" length="9.03" shape="1171.60,332.80 1171.95,335.25 1173.00,337.00 1174.75,338.05 1177.20,338.40"/>
    </edge>
    <edge id=":117_34_4" function="internal">
        <lane id=":117_34_4_0" index="0" speed="8.00" length="14.19" shape="1171.60,332.80 1171.05,336.65 1169.40,339.40 1166.65,341.05 1162.80,341.60"/>
    </edge>
    <edge id=":117_34_5" function="internal">
        <lane id=":117_34_5_0" index="0" speed="3.65" length="4.67" shape="1171.60,332.80 1170.80,334.00 1170.00,334.40 1169.20,334.00 1168.40,332.80"/>
    </edge>
    <edge id=":117_34_6" function="internal">
        <lane id=":117_34_6_0" index="0" speed="6.51" length="9.03" shape="1162.80,338.40 1165.25,338.05 1167.00,337.00 1168.05,335.25 1168.40,332.80"/>
    </edge>
    <edge id=":117_34_7" function="internal">
        <lane id=":117_34_7_0" index="0" speed="13.89" length="14.40" shape="1162.80,338.40 1177.20,338.40"/>
    </edge>
    <edge id=":117_34_8" function="internal">
        <lane id=":117_34_8_0" index="0" speed="3.65" length="2.34" shape="1162.80,338.40 1164.00,339.20 1164.40,340.00"/>
    </edge>
    <edge id=":117_34_11" function="internal">
        <lane id=":117_34_11_0" index="0" speed="3.65" length="2.34" shape="1164.40,340.00 1164.00,340.80 1162.80,341.60"/>
    </edge>
    <edge id=":121_73_0" function="internal">
        <lane id=":121_73_0_0" index="0" speed="3.65" length="4.67" shape="1211.60,730.00 1210.80,731.20 1210.00,731.60 1209.20,731.20 1208.40,730.00"/>
    </edge>
    <edge id=":122_63_0" function="internal">
        <lane id=":122_63_0_0" index="0" speed="3.65" length="4.67" shape="1218.43,629.69 1219.45,628.67 1220.31,628.43 1221.02,628.98 1221.57,630.31"/>
    </edge>
    <edge id=":122_73_0" function="internal">
        <lane id=":122_73_0_0" index="0" speed="3.65" length="4.67" shape="1218.40,730.00 1219.20,728.80 1220.00,728.40 1220.80,728.80 1221.60,730.00"/>
    </edge>
    <edge id=":122_79_0" function="internal">
        <lane id=":122_79_0_0" index="0" speed="3.65" length="4.67" shape="1220.00,788.40 1221.20,789.20 1221.60,790.00 1221.20,790.80 1220.00,791.60"/>
    </edge>
    <edge id=":122_83_0" function="internal">
        <lane id=":122_83_0_0" index="0" speed="3.65" length="4.67" shape="1220.00,828.40 1221.20,829.20 1221.60,830.00 1221.20,830.80 1220.00,831.60"/>
    </edge>
    <edge id=":122_90_0" function="internal">
        <lane id=":122_90_0_0" index="0" speed="3.65" length="4.67" shape="1221.60,900.00 1220.80,901.20 1220.00,901.60 1219.20,901.20 1218.40,900.00"/>
    </edge>
    <edge id=":123_81_0" function="internal">
        <lane id=":123_81_0_0" index="0" speed="3.65" length="4.67" shape="1230.59,811.49 1229.18,811.19 1228.51,810.59 1228.59,809.70 1229.41,808.51"/>
    </edge>
    <edge id=":126_164_0" function="internal">
        <lane id=":126_164_0_0" index="0" speed="3.65" length="4.67" shape="1258.82,1641.08 1258.60,1639.66 1258.92,1638.82 1259.78,1638.57 1261.18,1638.92"/>
    </edge>
    <edge id=":126_73_0" function="internal">
        <lane id=":126_73_0_0" index="0" speed="3.65" length="4.67" shape="1261.57,730.31 1260.55,731.33 1259.69,731.57 1258.98,731.02 1258.43,729.69"/>
    </edge>
    <edge id=":126_86_0" function="internal">
        <lane id=":126_86_0_0" index="0" speed="3.65" length="4.67" shape="1260.00,861.60 1258.80,860.80 1258.40,860.00 1258.80,859.20 1260.00,858.40"/>
    </edge>
    <edge id=":127_67_0" function="internal">
        <lane id=":127_67_0_0" index="0" speed="3.65" length="4.67" shape="1270.00,671.60 1268.80,670.80 1268.40,670.00 1268.80,669.20 1270.00,668.40"/>
    </edge>
    <edge id=":128_121_0" function="internal">
        <lane id=":128_121_0_0" index="0" speed="3.65" length="4.67" shape="1278.45,1210.39 1278.93,1209.03 1279.61,1208.45 1280.49,1208.64 1281.55,1209.61"/>
    </edge>
    <edge id=":128_62_0" function="internal">
        <lane id=":128_62_0_0" index="0" speed="3.65" length="4.67" shape="1280.00,618.40 1281.20,619.20 1281.60,620.00 1281.20,620.80 1280.00,621.60"/>
    </edge>
    <edge id=":128_79_0" function="internal">
        <lane id=":128_79_0_0" index="0" speed="3.65" length="4.67" shape="1279.41,788.51 1280.82,788.81 1281.49,789.41 1281.41,790.30 1280.59,791.49"/>
    </edge>
    <edge id=":129_117_0" function="internal">
        <lane id=":129_117_0_0" index="0" speed="3.65" length="4.67" shape="1290.00,1171.60 1288.80,1170.80 1288.40,1170.00 1288.80,1169.20 1290.00,1168.40"/>
    </edge>
    <edge id=":129_55_0" function="internal">
        <lane id=":129_55_0_0" index="0" speed="3.65" length="4.67" shape="1290.00,551.60 1288.80,550.80 1288.40,550.00 1288.80,549.20 1290.00,548.40"/>
    </edge>
    <edge id=":129_60_0" function="internal">
        <lane id=":129_60_0_0" index="0" speed="3.65" length="4.67" shape="1289.86,601.59 1288.73,600.69 1288.41,599.86 1288.88,599.09 1290.14,598.41"/>
    </edge>
    <edge id=":129_80_0" function="internal">
        <lane id=":129_80_0_0" index="0" speed="3.65" length="4.67" shape="1290.81,801.38 1289.37,801.30 1288.62,800.81 1288.56,799.91 1289.19,798.62"/>
    </edge>
    <edge id=":130_113_0" function="internal">
        <lane id=":130_113_0_0" index="0" speed="3.65" length="4.67" shape="1300.00,1131.60 1298.80,1130.80 1298.40,1130.00 1298.80,1129.20 1300.00,1128.40"/>
    </edge>
    <edge id=":130_86_0" function="internal">
        <lane id=":130_86_0_0" index="0" speed="3.65" length="4.67" shape="1300.00,858.40 1301.20,859.20 1301.60,860.00 1301.20,860.80 1300.00,861.60"/>
    </edge>
    <edge id=":130_90_0" function="internal">
        <lane id=":130_90_0_0" index="0" speed="3.65" length="4.67" shape="1300.00,898.40 1301.20,899.20 1301.60,900.00 1301.20,900.80 1300.00,901.60"/>
    </edge>
    <edge id=":133_1_0" function="internal">
        <lane id=":133_1_0_0" index="0" speed="3.65" length="4.67" shape="1328.40,10.00 1329.20,8.80 1330.00,8.40 1330.80,8.80 1331.60,10.00"/>
    </edge>
    <edge id=":133_113_0" function="internal">
        <lane id=":133_113_0_0" index="0" speed="3.65" length="4.67" shape="1328.40,1130.00 1329.20,1128.80 1330.00,1128.40 1330.80,1128.80 1331.60,1130.00"/>
    </edge>
    <edge id=":133_117_0" function="internal">
        <lane id=":133_117_0_0" index="0" speed="6.51" length="9.03" shape="1328.40,1177.20 1328.05,1174.75 1327.00,1173.00 1325.25,1171.95 1322.80,1171.60"/>
    </edge>
    <edge id=":133_117_1" function="internal">
        <lane id=":133_117_1_0" index="0" speed="13.89" length="14.40" shape="1328.40,1177.20 1328.40,1162.80"/>
    </edge>
    <edge id=":133_117_2" function="internal">
        <lane id=":133_117_2_0" index="0" speed="3.65" length="2.34" shape="1328.40,1177.20 1329.20,1176.00 1330.00,1175.60"/>
    </edge>
    <edge id=":133_117_9" function="internal">
        <lane id=":133_117_9_0" index="0" speed="3.65" length="2.34" shape="1330.00,1175.60 1330.80,1176.00 1331.60,1177.20"/>
    </edge>
    <edge id=":133_117_3" function="internal">
        <lane id=":133_117_3_0" index="0" speed="13.89" length="14.40" shape="1331.60,1162.80 1331.60,1177.20"/>
    </edge>
    <edge id=":133_117_4" function="internal">
        <lane id=":133_117_4_0" index="0" speed="8.00" length="5.93" shape="1331.60,1162.80 1331.05,1166.65 1330.00,1168.40"/>
    </edge>
    <edge id=":133_117_5" function="internal">
        <lane id=":133_117_5_0" index="0" speed="3.65" length="2.34" shape="1331.60,1162.80 1330.80,1164.00 1330.00,1164.40"/>
    </edge>
    <edge id=":133_117_10" function="internal">
        <lane id=":133_117_10_0" index="0" speed="8.00" length="8.26" shape="1330.00,1168.40 1329.40,1169.40 1326.65,1171.05 1322.80,1171.60"/>
    </edge>
    <edge id=":133_117_11" function="internal">
        <lane id=":133_117_11_0" index="0" speed="3.65" length="2.34" shape="1330.00,1164.40 1329.20,1164.00 1328.40,1162.80"/>
    </edge>
    <edge id=":133_117_6" function="internal">
        <lane id=":133_117_6_0" index="0" speed="6.51" length="9.03" shape="1322.80,1168.40 1325.25,1168.05 1327.00,1167.00 1328.05,1165.25 1328.40,1162.80"/>
    </edge>
    <edge id=":133_117_7" function="internal">
        <lane id=":133_117_7_0" index="0" speed="8.00" length="14.19" shape="1322.80,1168.40 1326.65,1168.95 1329.40,1170.60 1331.05,1173.35 1331.60,1177.20"/>
    </edge>
    <edge id=":133_117_8" function="internal">
        <lane id=":133_117_8_0" index="0" speed="3.65" length="4.67" shape="1322.80,1168.40 1324.00,1169.20 1324.40,1170.00 1324.00,1170.80 1322.80,1171.60"/>
    </edge>
    <edge id=":133_119_0" function="internal">
        <lane id=":133_119_0_0" index="0" speed="3.65" length="4.67" shape="1330.00,1191.60 1328.80,1190.80 1328.40,1190.00 1328.80,1189.20 1330.00,1188.40"/>
    </edge>
    <edge id=":133_125_0" function="internal">
        <lane id=":133_125_0_0" index="0" speed="3.65" length="4.67" shape="1331.60,1250.00 1330.80,1251.20 1330.00,1251.60 1329.20,1251.20 1328.40,1250.00"/>
    </edge>
    <edge id=":133_32_0" function="internal">
        <lane id=":133_32_0_0" index="0" speed="3.65" length="4.67" shape="1330.00,321.60 1328.80,320.80 1328.40,320.00 1328.80,319.20 1330.00,318.40"/>
    </edge>
    <edge id=":133_34_0" function="internal">
        <lane id=":133_34_0_0" index="0" speed="3.65" length="4.67" shape="1330.00,338.40 1331.20,339.20 1331.60,340.00 1331.20,340.80 1330.00,341.60"/>
    </edge>
    <edge id=":133_41_0" function="internal">
        <lane id=":133_41_0_0" index="0" speed="3.65" length="4.67" shape="1330.00,411.60 1328.80,410.80 1328.40,410.00 1328.80,409.20 1330.00,408.40"/>
    </edge>
    <edge id=":133_48_0" function="internal">
        <lane id=":133_48_0_0" index="0" speed="3.65" length="4.67" shape="1331.60,480.00 1330.80,481.20 1330.00,481.60 1329.20,481.20 1328.40,480.00"/>
    </edge>
    <edge id=":133_67_0" function="internal">
        <lane id=":133_67_0_0" index="0" speed="3.65" length="4.67" shape="1328.40,670.00 1329.20,668.80 1330.00,668.40 1330.80,668.80 1331.60,670.00"/>
    </edge>
    <edge id=":133_78_0" function="internal">
        <lane id=":133_78_0_0" index="0" speed="3.65" length="4.67" shape="1331.60,780.00 1330.80,781.20 1330.00,781.60 1329.20,781.20 1328.40,780.00"/>
    </edge>
    <edge id=":135_77_0" function="internal">
        <lane id=":135_77_0_0" index="0" speed="3.65" length="4.67" shape="1350.00,771.60 1348.80,770.80 1348.40,770.00 1348.80,769.20 1350.00,768.40"/>
    </edge>
    <edge id=":136_32_0" function="internal">
        <lane id=":136_32_0_0" index="0" speed="3.65" length="4.67" shape="1358.87,321.13 1358.59,319.72 1358.87,318.87 1359.72,318.59 1361.13,318.87"/>
    </edge>
    <edge id=":138_48_0" function="internal">
        <lane id=":138_48_0_0" index="0" speed="3.65" length="4.67" shape="1378.40,480.00 1379.20,478.80 1380.00,478.40 1380.80,478.80 1381.60,480.00"/>
    </edge>
    <edge id=":138_55_0" function="internal">
        <lane id=":138_55_0_0" index="0" speed="6.51" length="9.03" shape="1378.40,557.20 1378.05,554.75 1377.00,553.00 1375.25,551.95 1372.80,551.60"/>
    </edge>
    <edge id=":138_55_1" function="internal">
        <lane id=":138_55_1_0" index="0" speed="13.89" length="14.40" shape="1378.40,557.20 1378.40,542.80"/>
    </edge>
    <edge id=":138_55_2" function="internal">
        <lane id=":138_55_2_0" index="0" speed="8.00" length="5.93" shape="1378.40,557.20 1378.95,553.35 1380.00,551.60"/>
    </edge>
    <edge id=":138_55_3" function="internal">
        <lane id=":138_55_3_0" index="0" speed="3.65" length="2.34" shape="1378.40,557.20 1379.20,556.00 1380.00,555.60"/>
    </edge>
    <edge id=":138_55_16" function="internal">
        <lane id=":138_55_16_0" index="0" speed="8.00" length="8.26" shape="1380.00,551.60 1380.60,550.60 1383.35,548.95 1387.20,548.40"/>
    </edge>
    <edge id=":138_55_17" function="internal">
        <lane id=":138_55_17_0" index="0" speed="3.65" length="2.34" shape="1380.00,555.60 1380.80,556.00 1381.60,557.20"/>
    </edge>
    <edge id=":138_55_4" function="internal">
        <lane id=":138_55_4_0" index="0" speed="6.51" length="9.03" shape="1387.20,551.60 1384.75,551.95 1383.00,553.00 1381.95,554.75 1381.60,557.20"/>
    </edge>
    <edge id=":138_55_5" function="internal">
        <lane id=":138_55_5_0" index="0" speed="13.89" length="14.40" shape="1387.20,551.60 1372.80,551.60"/>
    </edge>
    <edge id=":138_55_6" function="internal">
        <lane id=":138_55_6_0" index="0" speed="8.00" length="14.19" shape="1387.20,551.60 1383.35,551.05 1380.60,549.40 1378.95,546.65 1378.40,542.80"/>
    </edge>
    <edge id=":138_55_7" function="internal">
        <lane id=":138_55_7_0" index="0" speed="3.65" length="4.67" shape="1387.20,551.60 1386.00,550.80 1385.60,550.00 1386.00,549.20 1387.20,548.40"/>
    </edge>
    <edge id=":138_55_8" function="internal">
        <lane id=":138_55_8_0" index="0" speed="6.51" length="9.03" shape="1381.60,542.80 1381.95,545.25 1383.00,547.00 1384.75,548.05 1387.20,548.40"/>
    </edge>
    <edge id=":138_55_9" function="internal">
        <lane id=":138_55_9_0" index="0" speed="13.89" length="14.40" shape="1381.60,542.80 1381.60,557.20"/>
    </edge>
    <edge id=":138_55_10" function="internal">
        <lane id=":138_55_10_0" index="0" speed="8.00" length="5.93" shape="1381.60,542.80 1381.05,546.65 1380.00,548.40"/>
    </edge>
    <edge id=":138_55_11" function="internal">
        <lane id=":138_55_11_0" index="0" speed="3.65" length="2.34" shape="1381.60,542.80 1380.80,544.00 1380.00,544.40"/>
    </edge>
    <edge id=":138_55_18" function="internal">
        <lane id=":138_55_18_0" index="0" speed="8.00" length="8.26" shape="1380.00,548.40 1379.40,549.40 1376.65,551.05 1372.80,551.60"/>
    </edge>
    <edge id=":138_55_19" function="internal">
        <lane id=":138_55_19_0" index="0" speed="3.65" length="2.34" shape="1380.00,544.40 1379.20,544.00 1378.40,542.80"/>
    </edge>
    <edge id=":138_55_12" function="internal">
        <lane id=":138_55_12_0" index="0" speed="6.51" length="9.03" shape="1372.80,548.40 1375.25,548.05 1377.00,547.00 1378.05,545.25 1378.40,542.80"/>
    </edge>
    <edge id=":138_55_13" function="internal">
        <lane id=":138_55_13_0" index="0" speed="13.89" length="14.40" shape="1372.80,548.40 1387.20,548.40"/>
    </edge>
    <edge id=":138_55_14" function="internal">
        <lane id=":138_55_14_0" index="0" speed="8.00" length="14.19" shape="1372.80,548.40 1376.65,548.95 1379.40,550.60 1381.05,553.35 1381.60,557.20"/>
    </edge>
    <edge id=":138_55_15" function="internal">
        <lane id=":138_55_15_0" index="0" speed="3.65" length="4.67" shape="1372.80,548.40 1374.00,549.20 1374.40,550.00 1374.00,550.80 1372.80,551.60"/>
    </edge>
    <edge id=":138_61_0" function="internal">
        <lane id=":138_61_0_0" index="0" speed="3.65" length="4.67" shape="1381.60,610.00 1380.80,611.20 1380.00,611.60 1379.20,611.20 1378.40,610.00"/>
    </edge>
    <edge id=":140_179_0" function="internal">